Circuit: * H:\SOFTWARES\DOWNLOAD\LTspiceIV\bipolar inverter.asc

Direct Newton iteration for .op point succeeded.

Date: Wed Feb 13 22:57:14 2013
Total elapsed time: 0.188 seconds.

tnom = 27
temp = 27
method = modified trap
totiter = 4072
traniter = 4060
tranpoints = 2031
accept = 2031
rejected = 0
matrix size = 9
fillins = 0
solver = Normal
Matrix Compiler1: 278 bytes object code size  1.9/1.8/[1.7]
Matrix Compiler2: 599 bytes object code size  1.9/2.2/[1.7]


