Circuit: * C:\Documents and Settings\NCET1\My Documents\BipolarInverterPrateek.asc

Limiting rise time of source v1 to 1
Limiting fall time of source v1 to 1
Direct Newton iteration for .op point succeeded.

Date: Fri Feb 08 15:11:52 2013
Total elapsed time: 0.015 seconds.

tnom = 27
temp = 27
method = modified trap
totiter = 1016
traniter = 1011
tranpoints = 398
accept = 373
rejected = 25
matrix size = 6
fillins = 0
solver = Normal
Matrix Compiler1: 146 bytes object code size  0.3/0.2/[0.2]
Matrix Compiler2: 380 bytes object code size  0.2/0.3/[0.2]


