Circuit: * C:\Users\Prateek\Documents\LTspiceXVII\Prateek\Clamper with diode.asc

.OP point found by inspection.

Date: Fri Sep 25 15:25:54 2020
Total elapsed time: 0.855 seconds.

tnom = 27
temp = 27
method = modified trap
totiter = 1025275
traniter = 1025275
tranpoints = 397011
accept = 270755
rejected = 126256
matrix size = 6
fillins = 0
solver = Normal
Matrix Compiler1: 182 bytes object code size  0.1/0.1/[0.0]
Matrix Compiler2: off  [0.0]/0.1/0.1

