Circuit: * C:\Users\Prateek\Documents\LTspiceXVII\Prateek\Diode Clipper.asc

.OP point found by inspection.

Date: Mon Aug 31 15:00:04 2020
Total elapsed time: 0.063 seconds.

tnom = 27
temp = 27
method = modified trap
totiter = 2163
traniter = 2163
tranpoints = 1048
accept = 1048
rejected = 0
matrix size = 3
fillins = 0
solver = Normal
Matrix Compiler1:       6 opcodes  0.1/[0.0]/0.0
Matrix Compiler2:      16 opcodes  0.1/[0.0]/0.1

