Circuit: * C:\Users\Prateek\Documents\LTspiceXVII\Prateek\Draft6.asc

.OP point found by inspection.

Date: Fri Sep 25 13:08:20 2020
Total elapsed time: 0.727 seconds.

tnom = 27
temp = 27
method = modified trap
totiter = 938493
traniter = 938493
tranpoints = 337228
accept = 219003
rejected = 118225
matrix size = 4
fillins = 0
solver = Normal
Matrix Compiler1: 136 bytes object code size  0.1/0.1/[0.1]
Matrix Compiler2: off  [0.0]/0.1/0.1

