Circuit: * C:\Users\Prateek\Documents\LTspiceXVII\Prateek\Draft1.asc

.OP point found by inspection.

Date: Fri Aug 28 16:08:57 2020
Total elapsed time: 0.153 seconds.

tnom = 27
temp = 27
method = modified trap
totiter = 2495
traniter = 2495
tranpoints = 1151
accept = 1110
rejected = 41
matrix size = 6
fillins = 0
solver = Normal
Matrix Compiler1: 254 bytes object code size  0.2/0.1/[0.1]
Matrix Compiler2: 408 bytes object code size  0.1/0.1/[0.1]

