Circuit: * C:\Users\Prateek\Documents\LTspiceXVII\Prateek\Draft3.asc

Direct Newton iteration for .op point succeeded.

Date: Fri Sep 18 14:46:18 2020
Total elapsed time: 0.073 seconds.

tnom = 27
temp = 27
method = modified trap
totiter = 2178
traniter = 2172
tranpoints = 1042
accept = 1042
rejected = 0
matrix size = 5
fillins = 0
solver = Normal
Matrix Compiler1:       7 opcodes  0.0/[0.0]/0.0
Matrix Compiler2: 301 bytes object code size  0.1/0.1/[0.0]

