Circuit: * C:\Users\Prateek\Documents\LTspiceXVII\Prateek\Full Wave Rectifier with tranfromer Bridge 4 diode .asc

.OP point found by inspection.

Date: Fri Aug 28 16:19:27 2020
Total elapsed time: 0.180 seconds.

tnom = 27
temp = 27
method = modified trap
totiter = 2201
traniter = 2201
tranpoints = 1085
accept = 1079
rejected = 6
matrix size = 6
fillins = 0
solver = Normal
Matrix Compiler1:      23 opcodes  0.1/[0.1]/0.1
Matrix Compiler2: 476 bytes object code size  0.1/0.1/[0.1]

