Circuit: * C:\Users\Prateek\Documents\LTspiceXVII\Prateek\Full Wave Rectifier with tranfromer.asc

.OP point found by inspection.

Date: Mon Sep 07 14:59:39 2020
Total elapsed time: 0.115 seconds.

tnom = 27
temp = 27
method = modified trap
totiter = 2113
traniter = 2113
tranpoints = 1056
accept = 1055
rejected = 1
matrix size = 9
fillins = 8
solver = Normal
Matrix Compiler1: 884 bytes object code size  0.4/0.2/[0.1]
Matrix Compiler2: off  [0.1]/0.2/0.1

