Circuit: * C:\Users\Prateek\Documents\LTspiceXVII\Prateek\Half Wave Rectifier.asc

.OP point found by inspection.

Date: Mon Aug 31 15:30:42 2020
Total elapsed time: 0.091 seconds.

tnom = 27
temp = 27
method = modified trap
totiter = 2202
traniter = 2202
tranpoints = 1071
accept = 1055
rejected = 16
matrix size = 3
fillins = 0
solver = Normal
Matrix Compiler1:       6 opcodes  0.1/[0.1]/0.1
Matrix Compiler2: 189 bytes object code size  0.1/0.1/[0.1]

