Circuit: * C:\Program Files\LTC\LTspiceIV\HIGH PASS FILTER FREQ RESPONSE.asc


Date: Tue May 07 10:58:23 2013
Total elapsed time: 0.016 seconds.

tnom = 27
temp = 27
method = trap
totiter = 0
traniter = 0
tranpoints = 0
accept = 0
rejected = 0
matrix size = 3
fillins = 0
solver = Normal

