Circuit: * H:\SOFTWARES\DOWNLOAD\LTspiceIV\HIGH PASS UsingOpAmp.asc

Direct Newton iteration for .op point succeeded.

Date: Fri Mar 29 23:16:18 2013
Total elapsed time: 0.125 seconds.

tnom = 27
temp = 27
method = trap
totiter = 11
traniter = 0
tranpoints = 0
accept = 0
rejected = 0
matrix size = 13
fillins = 2
solver = Normal
Matrix Compiler1:      39 opcodes
Matrix Compiler2: 1.14 KB object code size

