Circuit: * C:\Documents and Settings\NCET1\My Documents\InvertingApmlifierUsingOpAmpPrateek.asc

Direct Newton iteration for .op point succeeded.

Date: Fri Feb 08 15:11:20 2013
Total elapsed time: 0.078 seconds.

tnom = 27
temp = 27
method = modified trap
totiter = 942
traniter = 923
tranpoints = 422
accept = 266
rejected = 156
matrix size = 11
fillins = 2
solver = Normal
Matrix Compiler1: 570 bytes object code size  0.5/0.3/[0.3]
Matrix Compiler2: off  [0.4]/0.6/0.6


