Circuit: * C:\Users\Prateek\Documents\LTspiceXVII\Prateek\InvertingApmlifierUsingOpAmp.asc

Direct Newton iteration for .op point succeeded.

Date: Fri Nov 06 15:07:32 2020
Total elapsed time: 0.203 seconds.

tnom = 27
temp = 27
method = modified trap
totiter = 938
traniter = 919
tranpoints = 422
accept = 266
rejected = 156
matrix size = 11
fillins = 2
solver = Normal
Matrix Compiler1:      33 opcodes  0.3/[0.1]/0.2
Matrix Compiler2: off  [0.2]/0.3/0.2

