Circuit: * C:\Users\Prateek\Documents\LTspiceXVII\Prateek\N-JFETb.asc

.dc sweep increment has wrong sign -- fixing...

Date: Fri Oct 16 15:40:32 2020
Total elapsed time: 0.047 seconds.

tnom = 27
temp = 27
method = trap
totiter = 90
traniter = 0
tranpoints = 0
accept = 0
rejected = 0
matrix size = 7
fillins = 0
solver = Normal
Matrix Compiler1: 214 bytes object code size
Matrix Compiler2: 487 bytes object code size
