Circuit: * C:\Users\Prateek\Documents\LTspiceXVII\Prateek\Negative Shunt Clipper with BIAS.asc

Direct Newton iteration for .op point succeeded.

Date: Fri Sep 18 15:20:44 2020
Total elapsed time: 0.085 seconds.

tnom = 27
temp = 27
method = modified trap
totiter = 2122
traniter = 2118
tranpoints = 1046
accept = 1046
rejected = 0
matrix size = 5
fillins = 0
solver = Normal
Matrix Compiler1: 114 bytes object code size  0.0/0.0/[0.0]
Matrix Compiler2: off  [0.0]/0.1/0.1

