Circuit: * C:\Users\Prateek\Documents\LTspiceXVII\Prateek\NonInvertingApmlifierUsingOpAmp.asc

Direct Newton iteration for .op point succeeded.

Date: Fri Nov 06 14:56:25 2020
Total elapsed time: 0.137 seconds.

tnom = 27
temp = 27
method = modified trap
totiter = 930
traniter = 920
tranpoints = 421
accept = 265
rejected = 156
matrix size = 11
fillins = 2
solver = Normal
Matrix Compiler1:      33 opcodes  0.3/[0.2]/0.2
Matrix Compiler2: off  [0.2]/0.3/0.2

