Circuit: * C:\Users\Prateek\Documents\LTspiceXVII\Prateek\Positive Shunt Clipper with BIAS.asc

Direct Newton iteration for .op point succeeded.

Date: Fri Sep 18 15:20:32 2020
Total elapsed time: 0.087 seconds.

tnom = 27
temp = 27
method = modified trap
totiter = 2121
traniter = 2116
tranpoints = 1046
accept = 1046
rejected = 0
matrix size = 5
fillins = 0
solver = Normal
Matrix Compiler1: 114 bytes object code size  0.0/0.0/[0.0]
Matrix Compiler2: 301 bytes object code size  0.1/0.1/[0.1]

