Circuit: * C:\Users\Prateek\Documents\LTspiceXVII\Prateek\Voltage regulator with zener 2 vary load.asc

WARNING: Less than two connections to node N003.  This node is used by D1.
Direct Newton iteration for .op point succeeded.
Semiconductor Device Operating Points:
                        --- Diodes ---
Name:      d1
Model: bzx84c6v2l
Id:     -4.59e-41
Vd:      4.37e-18
Req:     1.72e+07
CAP:     1.85e-10



Date: Mon Sep 21 14:42:23 2020
Total elapsed time: 1.463 seconds.

tnom = 27
temp = 27
method = trap
totiter = 22
traniter = 0
tranpoints = 0
accept = 0
rejected = 0
matrix size = 5
fillins = 0
solver = Normal
Matrix Compiler1: 96 bytes object code size
Matrix Compiler2: 293 bytes object code size
