Circuit: * C:\Users\Prateek\Documents\LTspiceXVII\Prateek\Voltage regulator with zener.asc

.OP point found by inspection.

Date: Mon Sep 21 15:02:59 2020
Total elapsed time: 0.132 seconds.

tnom = 27
temp = 27
method = trap
totiter = 2000
traniter = 0
tranpoints = 0
accept = 0
rejected = 0
matrix size = 4
fillins = 0
solver = Normal
Matrix Compiler1:       6 opcodes  0.1/[0.0]/0.1
Matrix Compiler2: 248 bytes object code size  0.1/0.1/[0.0]

