Circuit: * C:\Users\Prateek\Documents\LTspiceXVII\Prateek\Zener characteristics.asc


Date: Mon Sep 21 13:04:25 2020
Total elapsed time: 0.051 seconds.

tnom = 27
temp = 27
method = trap
totiter = 2006
traniter = 0
tranpoints = 0
accept = 0
rejected = 0
matrix size = 4
fillins = 0
solver = Normal
Matrix Compiler1:       7 opcodes  0.1/[0.0]/0.1
Matrix Compiler2: 242 bytes object code size  0.1/0.1/[0.1]

